LTspice 24.1.4 for Windows
Circuit: C:\Users\barsam\Documents\GitHub\electest\Draft2.net
Start Time: Sun Sep 21 17:53:27 2025
solver = Normal
Maximum thread count: 4
tnom = 27
temp = 27
method = trap
Direct Newton iteration for .op point succeeded.
Total elapsed time: 0.246 seconds.

Files loaded:
C:\Users\barsam\Documents\GitHub\electest\Draft2.net
C:\Users\barsam\AppData\Local\LTspice\lib\sub\LTC.lib

